24
0 1   
C          0.00000        0.87845        1.79652
C         -0.76076       -0.43922        1.79652
H         -1.33206       -0.76905        2.65845
C          0.76076       -0.43922        1.79652
C         -1.19981       -0.69271        0.35389
H          0.00001        1.53812        2.65845
C          1.19981       -0.69271        0.35389
H          1.33205       -0.76907        2.65845
H          0.00000        2.47465        0.24764
C         -0.76076        0.43922       -1.79652
H         -2.14311       -1.23733        0.24764
C          1.19981        0.69271       -0.35389
C          0.00000       -1.38542       -0.35389
C          0.76076        0.43922       -1.79652
H          2.14311       -1.23733        0.24764
C          0.00000        1.38542        0.35389
C         -1.19981        0.69271       -0.35389
C         -0.00000       -0.87845       -1.79652
H         -2.14311        1.23733       -0.24764
H         -0.00000       -2.47465       -0.24764
H          2.14311        1.23733       -0.24764
H         -0.00001       -1.53812       -2.65845
H         -1.33205        0.76907       -2.65845
H          1.33206        0.76905       -2.65845
