24
0 1   
C         -0.21673        1.39210        0.44478
C          0.33720       -0.00231        0.75980
C         -1.61012        1.46871       -0.11967
C         -2.58179        0.51846       -0.19001
C         -0.09323       -1.02610       -0.32354
C         -2.51607       -0.91225        0.11531
C         -1.39294       -1.66637        0.03140
C          0.86934        1.95516       -0.45831
C          1.87687        0.07980        0.59747
H         -1.90445        2.47193       -0.43547
C          1.13488       -1.88337       -0.49180
H         -3.55542        0.86732       -0.53621
H         -3.46019       -1.39914        0.35453
H         -1.43339       -2.73326        0.24834
H          0.72787        2.83770       -1.07845
H          1.13491       -2.83617       -1.01618
C          2.01724        1.25619       -0.35204
C          2.23016       -1.26182       -0.01116
H          2.94135        1.49513       -0.87271
H          3.24646       -1.64186       -0.07817
H          0.03867       -0.37388        1.74557
H         -0.22596        1.99145        1.37279
H          2.40909        0.26571        1.54100
H         -0.24776       -0.45404       -1.25847
