35
0 1   
C         -1.51031        0.62606        0.26497
C         -2.64799        0.70650        1.08995
C         -3.84605        0.11096        0.69986
C         -3.93599       -0.57866       -0.51658
C         -2.80594       -0.65831       -1.33319
C         -1.59594       -0.06330       -0.95652
O         -0.39812        1.24210        0.76974
C          0.89290        1.24009        0.07206
C          1.39651       -0.17414       -0.28878
C          1.22124       -1.25197        0.50556
C          0.55529       -1.24313        1.86529
C          1.65656       -2.65293        0.11652
C          2.16308       -0.23698       -1.59370
C          0.75467        2.19596       -1.13249
C          1.85638        1.87765        1.08582
H         -2.56710        1.23976        2.03442
H         -4.71466        0.18481        1.35202
H         -4.87057       -1.04503       -0.81997
H         -2.85571       -1.19118       -2.28139
H         -0.73198       -0.15868       -1.60121
H         -0.46062       -1.65992        1.78726
H          0.47046       -0.25400        2.31365
H          1.11759       -1.89878        2.54682
H          1.78570       -2.79798       -0.95988
H          2.60066       -2.92229        0.61659
H          0.90256       -3.37546        0.45958
H          2.68119       -1.18755       -1.73459
H          2.92611        0.55378       -1.62459
H          1.50889       -0.06828       -2.46285
H          0.09739        1.79593       -1.90891
H          1.73238        2.40894       -1.57661
H          0.32754        3.13560       -0.76588
H          1.93228        1.26269        1.98708
H          1.51001        2.88270        1.35827
H          2.85159        1.95504        0.63170
