24
0 1   
C          0.99461       -0.08471        0.00000
C          1.06354       -0.98511        1.20240
C          1.06354       -0.98511       -1.20240
C          0.09250       -1.89111       -1.52165
C          0.09250       -1.89111        1.52165
C         -1.01081       -2.28760       -0.68843
C         -1.01081       -2.28760        0.68843
H          1.86996        0.57478        0.00000
H          1.91554       -0.87845        1.87332
H          1.91554       -0.87845       -1.87332
H          0.17078       -2.38931        2.48776
H          0.17078       -2.38931       -2.48776
H         -1.85757       -2.76147       -1.18321
H         -1.85757       -2.76147        1.18321
C         -0.25100        0.83979        0.00000
C         -0.26820        3.05711        0.73350
C         -0.26820        3.05711       -0.73350
C         -0.25861        1.77067        1.17811
C         -0.25861        1.77067       -1.17811
H         -0.27107        3.94741        1.35436
H         -0.27107        3.94741       -1.35436
H         -0.25679        1.43911        2.21080
H         -0.25679        1.43911       -2.21080
H         -1.15447        0.21251        0.00000
