12
0 1   
C          0.00000        1.39491        0.00000
C          1.20803        0.69746        0.00000
C          1.20803       -0.69746        0.00000
C          0.00000       -1.39491        0.00000
C         -1.20803       -0.69746        0.00000
C         -1.20803        0.69746        0.00000
F          2.36044        1.36280        0.00000
F          2.36044       -1.36280        0.00000
F          0.00000       -2.72560        0.00000
F         -2.36044       -1.36280        0.00000
F         -2.36044        1.36280        0.00000
F          0.00000        2.72560        0.00000
