6
0 1   
C          0.00000        0.66952       -0.00002
C          0.00000       -0.66952       -0.00002
H         -0.92249        1.23378        0.00004
H          0.92249        1.23378        0.00008
H          0.92249       -1.23378        0.00004
H         -0.92249       -1.23378        0.00008
