22
0 1   
C          0.00000        0.00000        1.29557
C          0.13324        1.43538        0.76413
C         -0.13324        1.43538       -0.76413
C          0.00000        0.00000       -1.29557
C          1.17646       -0.83308        0.76413
C          1.30970       -0.60230       -0.76413
C         -1.30970       -0.60230        0.76413
C         -1.17646       -0.83308       -0.76413
H          0.00000        0.00000        2.39192
H         -0.56976        2.09994        1.27952
H          1.14315        1.80709        0.97869
H          0.56976        2.09994       -1.27952
H         -1.14315        1.80709       -0.97869
H          0.00000        0.00000       -2.39192
H          0.99341       -1.89354        0.97869
H          2.10348       -0.55655        1.27952
H          2.13656        0.08645       -0.97869
H          1.53373       -1.54340       -1.27952
H         -2.13656        0.08645        0.97869
H         -1.53373       -1.54340        1.27952
H         -0.99341       -1.89354       -0.97869
H         -2.10348       -0.55655       -1.27952
