26
0 1   
C         -3.24936       -0.21218        0.19088
C         -3.01801       -0.08026        1.55311
C         -1.71870        0.14308        2.04650
C         -0.65890        0.23738        1.15805
C         -0.85036        0.11081       -0.24008
C         -2.18086       -0.12719       -0.72204
C          0.25737        0.19289       -1.20091
O         -2.46179       -0.27740       -2.02665
O          0.06375        0.02152       -2.42106
C          1.68700        0.51391       -0.73640
C          1.82965        1.96165       -0.23658
C          2.26431       -0.53773        0.24140
O          2.83801       -0.21851        1.26503
C          2.09562       -1.98435       -0.18481
H         -4.24730       -0.39007       -0.20169
H         -3.85485       -0.15174        2.24553
H         -1.54519        0.24144        3.11500
H          0.33770        0.41129        1.54860
H         -1.58910       -0.20426       -2.50899
H          2.28669        0.39798       -1.65101
H          1.23053        2.14235        0.66004
H          1.50728        2.65825       -1.01950
H          2.87801        2.15978        0.01118
H          2.38148       -2.11343       -1.23712
H          1.03194       -2.25389       -0.10956
H          2.68510       -2.64133        0.46107
