12
0 1
C       1.857768    0.472803    0.472425 
C       1.857768   -0.472803   -0.472425 
H       0.933772    0.874688    0.874063 
H       2.783818    0.871709    0.871556 
H       2.783818   -0.871709   -0.871556 
H       0.933772   -0.874688   -0.874063 
C      -1.857768    0.472803   -0.472425 
C      -1.857768   -0.472803    0.472425 
H      -2.783818    0.871709   -0.871556 
H      -0.933772    0.874688   -0.874063 
H      -0.933772   -0.874688    0.874063 
H      -2.783818   -0.871709    0.871556 
