14
0 1   
C         -3.07526        0.17079       -0.00003
C         -1.86545       -0.42592        0.00005
C         -0.60843        0.29942       -0.00002
C          0.60843       -0.29942       -0.00005
C          1.86545        0.42592        0.00007
C          3.07526       -0.17079       -0.00004
H         -3.98867       -0.40701        0.00017
H         -3.16881        1.24965       -0.00007
H         -1.80790       -1.51076        0.00016
H         -0.66216        1.38581       -0.00022
H          0.66216       -1.38581       -0.00038
H          1.80790        1.51076        0.00031
H          3.98867        0.40701       -0.00014
H          3.16881       -1.24965        0.00026
