18
0 1   
C         -4.30792       -0.20221        0.00002
C         -3.10932        0.41856       -0.00001
C         -1.83943       -0.27992       -0.00002
C         -0.63306        0.34628       -0.00002
C          0.63306       -0.34628       -0.00003
C          1.83943        0.27992        0.00005
C          3.10932       -0.41856        0.00005
C          4.30792        0.20220       -0.00004
H         -5.23245        0.35769        0.00006
H         -4.38012       -1.28276        0.00003
H         -3.07411        1.50450        0.00001
H         -1.86930       -1.36734       -0.00006
H         -0.60662        1.43392        0.00002
H          0.60662       -1.43392       -0.00009
H          1.86931        1.36734        0.00011
H          3.07411       -1.50450        0.00012
H          5.23245       -0.35769       -0.00005
H          4.38012        1.28275       -0.00012
