24
0 1   
C          3.07197        0.26649       -1.06601
O          4.01649       -0.48023       -1.11455
C          2.14982        0.46947        0.13508
O          2.60472       -0.27622        1.24832
C          0.70727        0.05507       -0.27077
H          0.47462        0.49324       -1.25191
C         -0.34361        0.58162        0.73203
O         -0.00513        0.23196        2.08978
C         -1.77788        0.09754        0.42128
H         -2.46684        0.62556        1.09161
C         -2.22104        0.34671       -1.02425
O         -3.60405        0.05570       -1.20379
H          2.76538        0.89162       -1.94449
H          2.13377        1.55855        0.33751
H          1.92522       -0.13316        1.93589
O          0.63591       -1.37445       -0.42433
H         -0.32446        1.67934        0.67864
H         -0.48284       -0.59491        2.27730
O         -1.92098       -1.29844        0.76159
H         -1.59811       -0.26069       -1.70404
H         -2.08676        1.40563       -1.28272
H         -3.74227       -0.83611       -0.84952
H          1.30869       -1.74959        0.17080
H         -1.21990       -1.75467        0.25655
