26
0 1   
C          0.00000        0.00000        0.78491
C          0.00000        0.00000       -0.78491
C         -0.86687        1.14120        1.34191
C          1.42175        0.18013        1.34191
C         -0.55487       -1.32133        1.34191
C          0.86687        1.14120       -1.34191
C         -1.42175        0.18013       -1.34191
C          0.55487       -1.32133       -1.34191
H         -0.59634        2.11091        0.91091
H         -1.93146        0.96683        1.15786
H         -0.72484        1.20960        2.42687
H          1.80303        1.18928        1.15786
H          1.40997        0.02293        2.42687
H          2.12627       -0.53901        0.91091
H         -1.52993       -1.57190        0.91091
H          0.12843       -2.15610        1.15786
H         -0.68513       -1.23253        2.42687
H          0.59634        2.11091       -0.91091
H          1.93146        0.96683       -1.15786
H          0.72484        1.20960       -2.42687
H         -1.80303        1.18928       -1.15786
H         -1.40997        0.02293       -2.42687
H         -2.12627       -0.53901       -0.91091
H          1.52993       -1.57190       -0.91091
H         -0.12843       -2.15610       -1.15786
H          0.68513       -1.23253       -2.42687
