26
0 1   
C         -0.16146        4.47867        0.00000
C         -0.84062        3.10866        0.00000
C          0.16146        1.95380        0.00000
C         -0.50209        0.57654        0.00000
C          0.50209       -0.57654        0.00000
C         -0.16146       -1.95380        0.00000
C          0.84062       -3.10866        0.00000
C          0.16146       -4.47867        0.00000
H         -0.89492        5.29077        0.00000
H          0.47278        4.59602        0.88488
H          0.47278        4.59602       -0.88488
H         -1.49009        3.01810       -0.87995
H         -1.49009        3.01810        0.87995
H          0.81285        2.04089       -0.88075
H          0.81285        2.04089        0.88075
H         -1.15296        0.48868       -0.88092
H         -1.15296        0.48868        0.88092
H          1.15296       -0.48868       -0.88092
H          1.15296       -0.48868        0.88092
H         -0.81285       -2.04089       -0.88075
H         -0.81285       -2.04089        0.88075
H          1.49009       -3.01810       -0.87995
H          1.49009       -3.01810        0.87995
H         -0.47278       -4.59602       -0.88488
H          0.89492       -5.29077        0.00000
H         -0.47278       -4.59602        0.88488
