9
0 1   
N          1.79370       -0.22812        0.00007
C          0.64191        0.35560       -0.00013
C         -0.58915       -0.43069       -0.00007
C         -1.80540        0.14390        0.00006
H          2.53755        0.47259        0.00005
H          0.52085        1.44404        0.00032
H         -0.47147       -1.50801       -0.00010
H         -2.71082       -0.44600        0.00035
H         -1.91617        1.22136       -0.00027
