10
1 1   
N         -1.74243        0.08051       -0.00011
C         -0.52562       -0.38073        0.00012
C          0.63938        0.44943        0.00007
C          1.85868       -0.13647       -0.00020
H         -2.54252       -0.54257       -0.00001
H         -1.93478        1.07746       -0.00028
H         -0.41917       -1.46054        0.00067
H          0.52628        1.52637        0.00043
H          2.76251        0.45599        0.00038
H          1.97006       -1.21365       -0.00034
