11
0 1
 Fe                -0.20172718   -0.07204683   -0.00000122
 C                  1.72826223   -0.07204605    0.00000018
 O                  2.84367125   -0.07204611   -0.00000000
 C                 -0.20170450   -0.07204607   -1.93000039
 O                 -0.20172911   -0.07204611   -3.04539904
 C                 -0.20170461   -0.07204606    1.92999980
 O                 -0.20172911   -0.07204611    3.04540007
 C                 -1.16675027   -1.74346759    0.00000029
 O                 -1.72442919   -2.70943999    0.00000000
 C                 -1.16675040    1.59937572    0.00000030
 O                 -1.72442932    2.56534801    0.00000000
