13
0 1   
N          3.00940       -0.25328        0.00007
C          1.88047        0.37822        0.00002
C          0.62343       -0.35271       -0.00008
C         -0.57903        0.27132       -0.00013
C         -1.85389       -0.42334       -0.00004
C         -3.04327        0.21197        0.00009
H          3.78076        0.41722        0.00014
H          1.80707        1.47107        0.00005
H          0.69202       -1.43578       -0.00008
H         -0.60938        1.35896       -0.00006
H         -1.82573       -1.50865        0.00009
H         -3.97490       -0.33588        0.00028
H         -3.10192        1.29331       -0.00001
