14
1 1   
N         -2.95418        0.08457        0.00003
C         -1.73607       -0.40174        0.00009
C         -0.56416        0.38479       -0.00020
C          0.65768       -0.23708       -0.00013
C          1.91667        0.44916        0.00011
C          3.08140       -0.24188        0.00002
H         -3.76241       -0.52429        0.00030
H         -3.12882        1.08273       -0.00029
H         -1.65846       -1.48400        0.00040
H         -0.64059        1.46610        0.00003
H          0.68811       -1.32480       -0.00035
H          1.91936        1.53266        0.00027
H          4.03594        0.26503        0.00023
H          3.09300       -1.32486       -0.00019
