17
0 1   
N         -4.33734        0.16861        0.00203
C         -3.20186       -0.45277       -0.00185
C         -1.95246        0.28750        0.00231
C         -0.74284       -0.32902       -0.00177
C          0.52093        0.36888        0.00215
C          1.72459       -0.26149       -0.00212
C          2.99798        0.43101        0.00174
C          4.19061       -0.20051       -0.00250
H         -5.10221       -0.50934       -0.00180
H         -3.11908       -1.54508       -0.00833
H         -2.02854        1.37014        0.00894
H         -0.70853       -1.41677       -0.00843
H          0.49264        1.45573        0.00885
H          1.75019       -1.34905       -0.00883
H          2.97006        1.51681        0.00843
H          5.12017        0.35088        0.00062
H          4.25294       -1.28164       -0.00915
