7
0 1   
C          0.00000        0.00000        0.21376
C          0.00000        0.00000        1.43616
C          0.00000        0.00000       -1.24965
H          0.00000        0.00000        2.49970
H          0.00000        1.01924       -1.63377
H          0.88269       -0.50962       -1.63377
H         -0.88269       -0.50962       -1.63377
