22
0 1   
N         -0.86725       -0.86725       -0.86725
C          0.00000        0.00000       -1.68027
N          0.86725        0.86725       -0.86725
C          0.00000        1.68027        0.00000
N         -0.86725        0.86725        0.86725
C         -1.68027        0.00000        0.00000
C          0.00000       -1.68027        0.00000
C          1.68027        0.00000        0.00000
C          0.00000        0.00000        1.68027
N          0.86725       -0.86725        0.86725
H          0.63057       -0.63057       -2.31707
H         -0.63057        0.63057       -2.31707
H          0.63057        2.31707        0.63057
H         -0.63057        2.31707       -0.63057
H         -2.31707        0.63057       -0.63057
H         -2.31707       -0.63057        0.63057
H          0.63057       -2.31707       -0.63057
H         -0.63057       -2.31707        0.63057
H          2.31707       -0.63057       -0.63057
H          2.31707        0.63057        0.63057
H         -0.63057       -0.63057        2.31707
H          0.63057        0.63057        2.31707
