12
0, 1
N	-0.746112695	-0.302816882	2.92822204
H	-1.641001714	-0.734680373	2.743618552
C	-0.745857809	1.09499291	3.021233041
O	-1.785740886	1.723192713	2.906382911
C	0.573636944	1.654074255	3.248796108
H	0.67495331	2.721296425	3.344664289
C	1.643510535	0.835381953	3.320316161
H	2.647389575	1.204046651	3.468742694
N	1.525449394	-0.521911311	3.207761497
H	2.338885388	-1.114098661	3.199593858
C	0.325002457	-1.169143739	2.9813798
O	0.23286521	-2.374561815	2.847800521
