31
0 1
Pd 0.0000000 0.0000000 0.7447810
P 0.0000000 2.0439550 1.9232440
P 0.0000000 -2.0439550 1.9232440
H 1.1951430 2.5845990 2.4580770
H -1.1951430 -2.5845990 2.4580770
H -0.3511360 3.1794590 1.1487350
H 0.3511360 -3.1794590 1.1487350
H -0.8074810 2.3657750 3.0415330
H 0.8074810 -2.3657750 3.0415330
C -2.3976420 -1.5445540 -0.9389140
C 2.3976420 1.5445540 -0.9389140
C -0.0457350 -0.7116120 -1.3610510
C 0.0457350 0.7116120 -1.3610510
C 1.3190410 1.3955350 -1.6918520
C -1.3190410 -1.3955350 -1.6918520
C 1.1475720 -1.5365100 -1.5546620
C -1.1475720 1.5365100 -1.5546620
H 3.2739190 2.0591700 -1.3118030
H -3.2739190 -2.0591700 -1.3118030
H 2.4451790 1.1467830 0.0702080
H -2.4451790 -1.1467830 0.0702080
H 1.3263670 1.8346400 -2.6895280
H -1.3263670 -1.8346400 -2.6895280
C 1.1561870 -2.8596560 -1.7155340
C -1.1561870 2.8596560 -1.7155340
H 2.0936840 -1.0068370 -1.5584990
H -2.0936840 1.0068370 -1.5584990
H 0.2478210 -3.4507230 -1.7084020
H -0.2478210 3.4507230 -1.7084020
H 2.0849580 -3.3948690 -1.8568730
H -2.0849580 3.3948690 -1.8568730
