22
0 1
N       1.398038     0.000000     0.000000
C       0.698537     1.140130     0.000000
C      -0.694182     1.195340     0.000000
C      -1.406747     0.000000     0.000000
C      -0.694182    -1.195340     0.000000
C       0.698537    -1.140130     0.000000
H       1.281669     2.056885     0.000000
H      -1.199925     2.152548     0.000000
H      -2.488547     0.000000     0.000000
H      -1.199925    -2.152548     0.000000
H       1.281669    -2.056885     0.000000
N      -1.398038     0.000000     3.700000
C      -0.698537     1.140130     3.700000
C       0.694182     1.195340     3.700000
C       1.406747     0.000000     3.700000
C       0.694182    -1.195340     3.700000
C      -0.698537    -1.140130     3.700000
H      -1.281669     2.056885     3.700000
H       1.199925     2.152548     3.700000
H       2.488547     0.000000     3.700000
H       1.199925    -2.152548     3.700000
H      -1.281669    -2.056885     3.700000
