17
0 1
C  0.0  1.8337090017  -0.650028118275
C  0.835431000865  0.977116001029  0.293544882666
C  0.0  0.0  1.11885388324
C  -0.835431000865  -0.977116001029  0.293544882666
C  0.0  -1.8337090017  -0.650028118275
H  0.613884000649  2.57798600244  -1.15481011882
H  -1.5885420014  -0.430944000306  -0.276794118075
H  -1.38612400149  -1.62597300168  0.976509883306
H  -0.782410000675  2.36106400238  -0.103148117552
H  -0.482803000284  1.23078000147  -1.41772311891
H  -0.663702000491  0.571147000424  1.77302188404
H  0.663702000491  -0.571147000424  1.77302188404
H  1.5885420014  0.430944000306  -0.276794118075
H  1.38612400149  1.62597300168  0.976509883306
H  -0.613884000649  -2.57798600244  -1.15481011882
H  0.482803000284  -1.23078000147  -1.41772311891
H  0.782410000675  -2.36106400238  -0.103148117552
