34
0 1
C	-1.95174369708	0.212836076016	0.0
C	-1.95174369708	-0.625637223451	1.27595745572
C	-1.95174369708	-0.625637223451	-1.27595745572
C	-1.95174369708	0.224948080342	2.5434139084
C	-1.95174369708	0.224948080342	-2.5434139084
H	-2.83047301093	0.872296311548	0.0
H	-1.07301438324	0.872296311548	0.0
H	-2.82975401067	-1.2837354585	1.273933455
H	-1.07373338349	-1.2837354585	1.273933455
H	-2.82975401067	-1.2837354585	-1.273933455
H	-1.07373338349	-1.2837354585	-1.273933455
H	-2.83576901282	0.869163310429	2.57989892143
H	-1.06771838134	0.869163310429	2.57989892143
H	-1.95174369708	-0.396732141696	3.44361722992
H	-2.83576901282	0.869163310429	-2.57989892143
H	-1.06771838134	0.869163310429	-2.57989892143
H	-1.95174369708	-0.396732141696	-3.44361722992
C	1.95174369708	-0.212836076016	0.0
C	1.95174369708	0.625637223451	-1.27595745572
C	1.95174369708	0.625637223451	1.27595745572
C	1.95174369708	-0.224948080342	-2.5434139084
C	1.95174369708	-0.224948080342	2.5434139084
H	1.07301438324	-0.872296311548	0.0
H	2.83047301093	-0.872296311548	0.0
H	1.07373338349	1.2837354585	-1.273933455
H	2.82975401067	1.2837354585	-1.273933455
H	1.07373338349	1.2837354585	1.273933455
H	2.82975401067	1.2837354585	1.273933455
H	1.06771838134	-0.869163310429	-2.57989892143
H	2.83576901282	-0.869163310429	-2.57989892143
H	1.95174369708	0.396732141696	-3.44361722992
H	1.06771838134	-0.869163310429	2.57989892143
H	2.83576901282	-0.869163310429	2.57989892143
H	1.95174369708	0.396732141696	3.44361722992
