10
0 2
C	1.20843974936	-0.287189255628	5.69997981988e-05
C	-0.0653592112012	0.576131146304	-5.69997981988e-05
C	-1.31478850109	-0.239518323151	-1.1000007475e-05
H	1.24137044957	-0.928393857418	0.881233580987
H	1.24139690843	-0.928584361228	-0.880979575908
H	2.10187086594	0.338727415439	0.0
H	-0.0482180488339	1.22684982585	-0.877090123128
H	-0.0482720249133	1.22703503789	0.876836118048
H	-1.7291448706	-0.615771814026	0.924435611596
H	-1.72876386299	-0.61641741027	-0.924366818553
