6
0 2
CL	1.45475059168	-0.00123699944549	-4.00000319924e-05
F	-0.323587125168	0.00463100473449	0.000123999988049
C	-2.38742020127	-0.00214699910173	-7.30000014995e-05
H	-2.49508660435	-0.855362105284	-0.649406319973
H	-2.49731444057	-0.138673014809	1.06313826033
H	-2.50153727502	0.986269973141	-0.413734057067
