7
-1 1
F	1.85061750811	-0.0131790006332	-0.000128000038874
C	0.0908570877671	0.0105859791953	0.000269000375225
H	0.0409070417972	1.07954804682	-0.0117490049532
H	0.037163006925	-0.528013059052	-0.922943331753
H	0.0374860167178	-0.507462989765	0.935130283798
O	-1.8928035184	0.103266294256	-0.0001180001764
H	-2.17382309648	-0.815112883725	3.89999928272e-05
