12
0 1
C  1.27609039881  -0.773273443301  0.0
C  1.23134722995  0.589053389033  0.0
C  -1.18192378264  1.07324972783  0.0
N  -1.49435191538  -0.199055471194  0.0
C  -1.06638519329  -1.33840171134  0.0
H  1.42015814972  -1.33084885231  -0.917089348019
H  1.42015814972  -1.33084885231  0.917089348019
H  1.34536199871  1.15022022831  -0.919567884935
H  1.34536199871  1.15022022831  0.919567884935
H  -1.30031450433  1.61932429691  0.929003544699
H  -1.30031450433  1.61932429691  -0.929003544699
H  -1.69518802565  -2.22896383684  0.0
