16
0 1
H	0.0	2.52622290226	-0.737147263278
C	0.0	1.43915751401	-0.719642257026
C	0.0	-1.43915751401	-0.719642257026
C	0.0	0.697807249228	0.453266161888
C	0.0	0.701083250398	-1.91471768386
C	0.0	-0.701083250398	-1.91471768386
C	0.0	-0.697807249228	0.453266161888
C	0.0	0.790511282338	1.97373570494
H	0.0	1.22778743851	-2.86579702354
H	0.0	-1.22778743851	-2.86579702354
H	0.888881317471	-1.24737644551	2.42354586559
H	0.0	-2.52622290226	-0.737147263278
H	-0.888881317471	1.24737644551	2.42354586559
H	0.888881317471	1.24737644551	2.42354586559
H	-0.888881317471	-1.24737644551	2.42354586559
C	0.0	-0.790511282338	1.97373570494
