16
0 1
H  -1.96835557801  1.06706738111  1.34307147969
C  -1.11416527293  1.01457436236  0.684217244374
C  0.229222206869  0.729325260485  1.09945039268
C  -1.11416527293  1.01457436236  -0.684217244374
H  1.98243683304  0.706300252261  0.0
N  1.03477849458  1.05782437781  0.0
C  0.229222206869  -1.33411147649  0.706597252367
H  0.615933344986  0.869636310598  2.1001877501
C  0.229222206869  -1.33411147649  -0.706597252367
H  -1.96835557801  1.06706738111  -1.34307147969
C  0.229222206869  0.729325260485  -1.09945039268
H  0.615933344986  0.869636310598  -2.1001877501
H  1.15484253746  -1.56502655896  -1.2257754378
H  -0.655307109048  -1.66352759414  1.23801544217
H  1.15484253746  -1.56502655896  1.2257754378
H  -0.655307109048  -1.66352759414  -1.23801544217
