17
0 1
C	0.221544079126	0.249942089269	1.12850440305
C	1.13201040431	0.791597282725	0.0
H	1.20734543121	1.88354867272	0.0
C	0.221544079126	0.249942089269	-1.12850440305
H	2.13749976343	0.351766125636	0.0
C	-1.12576240208	0.79200128287	-0.670298239403
H	0.510542182344	0.477305170473	-2.15774877066
H	1.12228640083	-1.76173862922	1.17774942064
H	-1.96078070031	1.0121693615	-1.32872647457
C	-1.12576240208	0.79200128287	0.670298239403
H	1.12228640083	-1.76173862922	-1.17774942064
C	0.221544079126	-1.27949545698	-0.780534278774
H	-0.644462230175	-1.79486964105	1.20660943095
H	0.510542182344	0.477305170473	2.15774877066
H	-1.96078070031	1.0121693615	1.32872647457
H	-0.644462230175	-1.79486964105	-1.20660943095
C	0.221544079126	-1.27949545698	0.780534278774
