13
0 1
C	0.015864005666	-0.906955323927	1.30942046767
C	0.015864005666	-0.906955323927	-1.30942046767
C	0.015864005666	0.507865181388	1.21164043275
C	0.015864005666	0.507865181388	-1.21164043275
C	-0.142456050879	1.18550542341	0.0
H	0.498374177998	-1.20614543078	0.0
H	0.515504184117	-1.33365547633	2.18168077921
H	0.515504184117	-1.33365547633	-2.18168077921
H	-0.896696320262	-1.45181551853	1.0687003817
H	-0.896696320262	-1.45181551853	-1.0687003817
H	0.405514144833	1.09119538973	2.04603073076
H	0.405514144833	1.09119538973	-2.04603073076
H	-0.0730060260747	2.27075581102	0.0
