10
0 1
H  1.88184967212  -1.1009243932  -0.435440155521
C  1.06484538032  -0.62608222361  0.119166042561
C  -1.0656203806  -0.625274223322  -0.119189042569
C  0.683760244211  0.732882261755  -0.0838310299409
C  -0.682927243913  0.733403261941  0.0836470298752
H  -1.88271967243  -1.09937739265  0.435915155691
H  -1.33868847812  1.54212455078  0.403314144047
H  0.870699310977  -1.08642138802  1.08064838596
H  -0.871987311437  -1.08615338793  -1.08050238591
H  1.34049547877  1.54117255044  -0.402694143826
