10
0 1
H  0.0  -1.42064150739  1.60147357198
C  0.0  0.670170239357  0.814819291019
C  0.0  -0.670170239357  0.814819291019
C  0.0  0.786311280838  -0.699697249903
C  0.0  -0.786311280838  -0.699697249903
H  0.89010931791  -1.24659944523  -1.14610140934
H  -0.89010931791  -1.24659944523  -1.14610140934
H  0.0  1.42064150739  1.60147357198
H  -0.89010931791  1.24659944523  -1.14610140934
H  0.89010931791  1.24659944523  -1.14610140934
