12
0 1
C	-1.11892819609	-0.393006936802	0.0604590180131
C	-1.06961559227	0.985691791874	-0.0333415441167
O	1.04351910617	1.35627306727	-0.214293526609
N	1.47852949866	0.22573745369	0.229416235583
C	0.957823019019	-0.898681065631	-0.272131988195
H	-1.24594514587	-0.861330407691	1.03067152823
H	-1.48801728689	-0.974148619055	-0.777212832068
H	-1.09461976816	1.61014792791	0.849160215969
H	-1.26644925241	1.48844296043	-0.970259390249
H	1.7531716749	0.204283676134	1.21443326093
H	0.820897008283	-0.920131352204	-1.34318470496
H	1.22963493466	-1.82327849593	0.226283727465
