9
0 1
C  -0.717311256194  0.0  0.735364280029
C  -1.09398696745  0.0  -0.569031730529
O  0.0  0.0  -1.38121434299
C  1.09398696745  0.0  -0.569031730529
C  0.717311256194  0.0  0.735364280029
H  -1.37199245437  0.0  1.59213937739
H  -2.04808591119  0.0  -1.0678647554
H  2.04808591119  0.0  -1.0678647554
H  1.37199245437  0.0  1.59213937739
