14
0 1
C	-0.106083037888	-1.20371642992	1.14065340739
C	0.188734067408	0.119843042803	1.48248952948
C	-0.106083037888	1.2423194437	0.702964251069
C	-0.106083037888	1.2423194437	-0.702964251069
C	0.188734067408	0.119843042803	-1.48248952948
C	-0.106083037888	-1.20371642992	-1.14065340739
H	0.84128030047	0.296276105817	2.34048883592
H	-0.0165790059213	2.22000079289	1.1751064197
H	-0.0165790059213	2.22000079289	-1.1751064197
H	0.84128030047	0.296276105817	-2.34048883592
H	0.447050159668	-1.99920471403	-1.64114758615
H	-1.131155404	-1.46774952422	-0.936255334391
H	0.447050159668	-1.99920471403	1.64114758615
H	-1.131155404	-1.46774952422	0.936255334391
