16
0 1
C  0.21200807572  -0.489628174875  0.560189200076
C  -0.213065076098  0.490150175061  -0.560496200186
C  0.440942157486  0.181256064737  -1.87943667126
C  -0.20248607232  -0.151173053993  -2.99914207117
C  -0.440948157488  -0.179996064287  1.87947767127
C  0.203556072702  0.149567053419  2.99941107126
H  -0.0530290189398  -1.50893853893  0.243769087064
H  1.30394846572  -0.469025167516  0.673099240403
H  -1.30491846606  0.468734167412  -0.674089240757
H  0.0510480182322  1.50957053916  -0.243686087034
H  1.53174754708  0.228282081533  -1.89003767504
H  -1.28860946024  -0.212599075932  -3.03699808469
H  0.327672117031  -0.370274132246  -3.92227440087
H  -1.53188054712  -0.224031080015  1.8902046751
H  -0.325868116386  0.36919113186  3.92283940107
H  1.28984446068  0.2080310743  3.03715508474
