16
0 1
C  0.499253178312  -0.43658415593  1.43729151334
C  0.499253178312  -0.43658415593  -1.43729151334
C  -0.261329093336  -1.32880447459  0.703590251293
C  -0.261329093336  -1.32880447459  -0.703590251293
C  -0.261329093336  1.57183456139  0.69299924751
C  -0.261329093336  1.57183456139  -0.69299924751
H  0.387554138418  -0.386519138048  2.51767689921
H  1.45989152141  -0.0953930340704  1.06867438169
H  0.387554138418  -0.386519138048  -2.51767689921
H  1.45989152141  -0.0953930340704  -1.06867438169
H  -1.04073337171  -1.89346967627  1.21328943334
H  -1.04073337171  -1.89346967627  -1.21328943334
H  0.525348187632  2.08805074576  1.23581344138
H  -1.1916244256  1.4486515174  1.23591744142
H  0.525348187632  2.08805074576  -1.23581344138
H  -1.1916244256  1.4486515174  -1.23591744142
