26
0 1
C  0.885292953664  0.885292953664  -0.885292953664
C  -0.885292953664  -0.885292953664  -0.885292953664
C  -0.885292953664  0.885292953664  0.885292953664
C  0.885292953664  -0.885292953664  0.885292953664
C  1.76649949234  0.0  0.0
C  0.0  -1.76649949234  0.0
C  0.0  0.0  1.76649949234
C  0.0  0.0  -1.76649949234
C  -1.76649949234  0.0  0.0
C  0.0  1.76649949234  0.0
H  2.41445852891  0.622947662102  0.622947662102
H  0.622947662102  -2.41445852891  -0.622947662102
H  -0.622947662102  -0.622947662102  2.41445852891
H  -0.622947662102  0.622947662102  -2.41445852891
H  -2.41445852891  0.622947662102  -0.622947662102
H  -0.622947662102  2.41445852891  -0.622947662102
H  -0.622947662102  -2.41445852891  0.622947662102
H  0.622947662102  0.622947662102  2.41445852891
H  2.41445852891  -0.622947662102  -0.622947662102
H  -2.41445852891  -0.622947662102  0.622947662102
H  0.622947662102  2.41445852891  0.622947662102
H  0.622947662102  -0.622947662102  -2.41445852891
H  1.51602920048  1.51602920048  -1.51602920048
H  -1.51602920048  -1.51602920048  -1.51602920048
H  -1.51602920048  1.51602920048  1.51602920048
H  1.51602920048  -1.51602920048  1.51602920048
