23
0 1
C  0.0  -3.80456079536  -0.33688962712
C  0.0  -2.54329227926  0.516984824367
C  0.0  -1.27100966467  -0.320061058762
C  0.0  0.0  0.518549333165
C  0.0  1.27100966467  -0.320061058762
C  0.0  2.54329227926  0.516984824367
C  0.0  3.80456079536  -0.33688962712
H  0.879647686758  -3.8364825157  -0.979549179248
H  0.0  -4.70543126023  0.274711774885
H  -0.879647686758  -3.8364825157  -0.979549179248
H  0.874532622725  -2.54069940055  1.17143668581
H  -0.874532622725  -2.54069940055  1.17143668581
H  0.875323680654  -1.27132268108  -0.97604048585
H  -0.875323680654  -1.27132268108  -0.97604048585
H  0.875452016788  0.0  1.17428537862
H  -0.875452016788  0.0  1.17428537862
H  0.875323680654  1.27132268108  -0.97604048585
H  -0.875323680654  1.27132268108  -0.97604048585
H  0.874532622725  2.54069940055  1.17143668581
H  -0.874532622725  2.54069940055  1.17143668581
H  0.879647686758  3.8364825157  -0.979549179248
H  0.0  4.70543126023  0.274711774885
H  -0.879647686758  3.8364825157  -0.979549179248
