20
0 1
C  0.0  1.28071752346  -0.193132439932
C  -1.24342202222  0.770574782525  0.559970894209
C  -1.24342202222  -0.770574782525  0.559970894209
C  0.0  -1.28071752346  -0.193132439932
C  0.0  0.665480421617  -1.56095144376
C  0.0  -0.665480421617  -1.56095144376
C  1.24342202222  0.770574782525  0.559970894209
C  1.24342202222  -0.770574782525  0.559970894209
H  0.0  2.37180793925  -0.233014036347
H  -1.22879412056  1.1618797144  1.581782006
H  -2.14570147957  1.15929749792  0.0830659731943
H  -2.14570147957  -1.15929749792  0.0830659731943
H  -1.22879412056  -1.1618797144  1.581782006
H  0.0  -2.37180793925  -0.233014036347
H  0.0  1.26837372108  -2.46253982678
H  0.0  -1.26837372108  -2.46253982678
H  1.22879412056  1.1618797144  1.581782006
H  2.14570147957  1.15929749792  0.0830659731943
H  1.22879412056  -1.1618797144  1.581782006
H  2.14570147957  -1.15929749792  0.0830659731943
