18
0 1
C	0.670674188022	0.526804880281	-1.06194704931
C	-0.468879724332	-0.501694049331	-0.763638467812
C	-0.468879724332	-0.501694049331	0.763638467812
C	0.670674188022	0.526804880281	1.06194704931
C	1.95962463879	-0.157707325176	-0.6641267401
C	1.95962463879	-0.157707325176	0.6641267401
O	0.473440288536	1.44895776203	0.0
C	-1.81983154864	0.0566975837913	-1.13653216145
C	-1.81983154864	0.0566975837913	1.13653216145
O	-2.53097670814	0.362803748217	0.0
O	-2.2680862348	0.238483258332	2.21959654039
O	-2.2680862348	0.238483258332	-2.21959654039
H	0.611609680055	1.01378419587	-2.03176291131
H	-0.316593803352	-1.45989814471	-1.25737820778
H	-0.316593803352	-1.45989814471	1.25737820778
H	0.611609680055	1.01378419587	2.03176291131
H	2.66025101406	-0.622351154185	-1.34323911901
H	2.66025101406	-0.622351154185	1.34323911901
