7
0 2
C        -0.0118000000   -0.6932000000    0.0000000000
C        -0.0118000000    0.7930000000    0.0000000000
H         1.0059000000   -1.0974000000    0.0000000000
H        -0.5089000000   -1.0936000000    0.8816000000
H        -0.5089000000   -1.0936000000   -0.8816000000
H         0.0769000000    1.3430000000   -0.9217000000
H         0.0769000000    1.3430000000    0.9217000000