8
0 1
C	-0.962943012962	0.0784414882085	0.0
C	0.53003141251	0.251453735371	0.0
O	1.12197718114	1.29927000099	0.0
O	1.17080872965	-0.946508830969	0.0
H	2.11986652177	-0.755127874036	0.0
H	-1.44169370288	1.05231147503	0.0
H	-1.26902356461	-0.489919997296	0.878487587725
H	-1.26902356461	-0.489919997296	-0.878487587725
