10
0 1
C	0.0	-0.667585218405	0.926423721818
C	0.0	-0.785510670472	-0.585221263623
C	0.0	0.785510670472	-0.585221263623
C	0.0	0.667585218405	0.926423721818
H	0.0	-1.41045923204	1.71319208506
H	0.887039536829	-1.242674407	-1.02719727163
H	-0.887039536829	-1.242674407	-1.02719727163
H	-0.887039536829	1.242674407	-1.02719727163
H	0.887039536829	1.242674407	-1.02719727163
H	0.0	1.41045923204	1.71319208506
