7
0 1
S  0.0  0.0  1.59689538166
C  0.0  -0.738650874691  -0.0852988105258
C  0.0  0.738650874691  -0.0852988105258
H  0.912678422211  -1.25059718282  -0.356574440151
H  -0.912678422211  -1.25059718282  -0.356574440151
H  -0.912678422211  1.25059718282  -0.356574440151
H  0.912678422211  1.25059718282  -0.356574440151
