12
0 1
C  1.20481149193  0.695598239191  0.0
C  1.20481149193  -0.695598239191  0.0
C  0.0  -1.39119647838  0.0
C  -1.20481149193  -0.695598239191  0.0
C  -1.20481149193  0.695598239191  0.0
C  0.0  1.39119647838  0.0
H  2.14201782621  1.23669456857  0.0
H  2.14201782621  -1.23669456857  0.0
H  0.0  -2.47338913714  0.0
H  -2.14201782621  -1.23669456857  0.0
H  -2.14201782621  1.23669456857  0.0
H  0.0  2.47338913714  0.0
