8
0 1
PB  1.45480330755  1.10892546061  0.0
H  1.47889662336  2.11593949289  1.40038484631
H  2.87767914212  0.133865890118  0.0
H  0.0530930534982  0.117409560186  0.0
H  1.47889662336  2.11593949289  -1.40038484631
O  -2.12663260164  -1.63842426337  0.0
H  -3.04305384043  -1.35800816169  0.0
H  -2.17368230782  -2.59564747164  0.0
