7
0 1
BI	0.881735228098	-1.21359145797	-0.28844639843
H	0.663049339318	-2.94881000933	0.00668746362807
H	0.11661015707	-0.870369081617	1.26334027379
H	-0.694705092862	-1.16741584481	-1.07588924217
O	0.0289783086822	1.89471001891	0.0108130795005
H	-0.661419467327	1.74538108868	0.659836937739
H	-0.33424847298	2.56009528612	-0.576342114055
