8
0 1
BI  2.22863501562  0.348918643325  0.0
BI  -2.22863501562  -0.348918643325  0.0
H  3.23478889058  -0.394884305911  1.24306990762
H  1.1880549002  -1.07640380474  0.0
H  3.23478889058  -0.394884305911  -1.24306990762
H  -3.23478889058  0.394884305911  -1.24306990762
H  -1.1880549002  1.07640380474  0.0
H  -3.23478889058  0.394884305911  1.24306990762
