26
0 1
C	-4.46047062848	-0.268215395571	0.0
C	-3.16592179403	0.536615382231	0.0
C	-1.92395214613	-0.346724080001	0.0
C	-0.620456220229	0.442250353718	0.0
C	0.620456220229	-0.442250353718	0.0
C	1.92395214613	0.346724080001	0.0
C	3.16592179403	-0.536615382231	0.0
C	4.46047062848	0.268215395571	0.0
H	-5.33699098285	0.38095570179	0.0
H	-4.51726210485	-0.908855275545	-0.881915404287
H	-4.51726210485	-0.908855275545	0.881915404287
H	-3.13792978734	1.18881407966	0.877663061432
H	-3.13792978734	1.18881407966	-0.877663061432
H	-1.94755997112	-1.00029529961	0.878470882337
H	-1.94755997112	-1.00029529961	-0.878470882337
H	-0.595439123501	1.09547848378	0.87856083522
H	-0.595439123501	1.09547848378	-0.87856083522
H	0.595439123501	-1.09547848378	0.87856083522
H	0.595439123501	-1.09547848378	-0.87856083522
H	1.94755997112	1.00029529961	0.878470882337
H	1.94755997112	1.00029529961	-0.878470882337
H	3.13792978734	-1.18881407966	0.877663061432
H	3.13792978734	-1.18881407966	-0.877663061432
H	4.51726210485	0.908855275545	0.881915404287
H	5.33699098285	-0.38095570179	0.0
H	4.51726210485	0.908855275545	-0.881915404287
