16
0 1
C  -1.57845173456  -0.633191934854  0.373446395927
C  -1.57845173456  0.633191934854  -0.373446395927
C  -0.633191934854  1.57845173456  -0.373446395927
C  0.633191934854  1.57845173456  0.373446395927
C  1.57845173456  0.633191934854  0.373446395927
C  1.57845173456  -0.633191934854  -0.373446395927
C  0.633191934854  -1.57845173456  -0.373446395927
C  -0.633191934854  -1.57845173456  0.373446395927
H  -2.49315774248  -0.83882907193  0.92587555657
H  -2.49315774248  0.83882907193  -0.92587555657
H  -0.83882907193  2.49315774248  -0.92587555657
H  0.83882907193  2.49315774248  0.92587555657
H  2.49315774248  0.83882907193  0.92587555657
H  2.49315774248  -0.83882907193  -0.92587555657
H  0.83882907193  -2.49315774248  -0.92587555657
H  -0.83882907193  -2.49315774248  0.92587555657
