8
0 1
C  -1.02154463516  -0.0714206392005  0.0
N  0.270038748898  -0.733638992072  0.0
C  1.30737233799  -0.0170186943135  0.0
H  -0.956326653819  1.02641208158  0.0
H  -1.58601795647  -0.396148823272  0.877469212217
H  -1.58601795647  -0.396148823272  -0.877469212217
H  1.28670873862  1.08242409019  0.0
H  2.28578737641  -0.494460199642  0.0
