7
0 1
C  0.0  -0.732879934737  0.0499368713028
C  0.0  0.732879934737  0.0499368713028
O  0.0  0.0  -1.17875436005
H  -0.919045298453  -1.26905649423  0.26972015436
H  0.919045298453  -1.26905649423  0.26972015436
H  -0.919045298453  1.26905649423  0.26972015436
H  0.919045298453  1.26905649423  0.26972015436
