10
0 1
N  0.0  1.4020191965  0.0
C  -1.13133179102  0.696332133018  0.0
C  -1.13133179102  -0.696332133018  0.0
N  0.0  -1.4020191965  0.0
C  1.13133179102  -0.696332133018  0.0
C  1.13133179102  0.696332133018  0.0
H  -2.06197298106  1.25418602045  0.0
H  -2.06197298106  -1.25418602045  0.0
H  2.06197298106  -1.25418602045  0.0
H  2.06197298106  1.25418602045  0.0
