9
0 1
C	0.0	1.17548000712	-0.0451644605114
O	0.0	0.0	-0.828850227816
C	0.0	-1.17548000712	-0.0451644605114
H	0.0	2.02266782996	-0.730289117686
H	-0.891536472485	1.23501178771	0.594939346053
H	0.891536472485	1.23501178771	0.594939346053
H	0.0	-2.02266782996	-0.730289117686
H	-0.891536472485	-1.23501178771	0.594939346053
H	0.891536472485	-1.23501178771	0.594939346053
