8
0 1
SI  -1.93697757803  -0.446473676253  -0.199131120567
H  0.67441676351  0.739108049657  1.99739412834
H  -3.37458751144  -0.150255128232  -0.619694728113
H  1.33805919752  0.533434044556  2.29372965722
C  -0.49331189618  0.0279601986226  -1.02578201244
MG  1.43299993805  -0.433858135777  -0.436524596461
H  -0.687978185019  0.582777378497  -1.95949677179
H  3.04737927159  -0.85269273107  -0.0504945561897
