8
0 1
H  0.00975800327755  3.00240593508  -0.271653801665
H  -0.106717523799  -0.185414926801  1.48442247043
H  0.0172829448931  2.4578350117  -0.790967182836
H  -0.0276249115071  0.367946353911  0.959997004326
H  -1.56478993676  -1.52200716004  -0.475251836326
AL  0.0210771418408  -1.38176593902  -0.311604578159
H  0.827953598786  -0.355995698143  -1.24244194494
H  0.823060683269  -2.3830035767  0.647499869174
