8
0 1
H	0.710574013125	-1.83926488951	-0.130894177179
C	0.0494874313368	-0.984733453346	0.0588535912604
N	0.835592642392	0.225764191363	0.0303499187569
H	-0.754922562749	-0.98945983205	-0.710603401376
H	-0.926383719404	1.24179437307	-0.289278167202
H	-0.438502924924	-1.13748418321	1.04284609764
N	0.022859296277	1.30520111047	0.105332018989
H	0.501295823946	2.17818268322	-0.106605880886
