8
0 1
H  -0.0589934509913  -1.87993321786  -1.22328810692
C  0.299274597327  -1.03168596931  -0.625129557438
H  -1.51515023016  -0.723938532524  0.295871368108
H  1.37782911005  -0.835686602521  -0.730035277477
NA  -0.0232277765961  1.74957152992  -0.959734230604
H  0.315946167496  2.28794252698  1.0172523901
C  -0.474477637393  -0.347150529517  0.262874251788
AL  0.0787992202656  0.780880794841  1.96218916244
