8
0 1
P	-0.632877214826	-0.0411223854607	-1.96291614703
C	-0.0632299615403	-0.909252644782	-0.625098331046
H	1.08560596979	1.72416853269	0.811413896573
MG	-0.647754210814	-0.287947098987	1.2905356769
H	-0.0426775366638	-0.774487160175	-3.07774219419
H	0.579513290904	-1.78206200201	-0.804679024903
H	0.925470456446	1.96874226793	1.50865750196
H	-1.2040507933	0.101960490792	2.85982862173
