8
0 1
H  1.92603619007  0.0184880679159  -0.749918241229
H  -0.733399514584  0.0208411046506  -2.42931398934
H  -1.35489965753  -0.00271227111522  -1.99500439559
H  -0.66100440847  -1.05581703909  1.35973631793
H  -0.688425594005  1.0331832207  1.38141866483
H  1.15654624983  0.0149381759144  1.05094789071
LI  0.301100090003  -0.0205727738224  -0.672144960584
P  0.0540466446881  -0.00834848515892  2.05427871328
