8
0 1
N  0.595713537056  0.214370734586  -1.09194522248
C  -0.486016626656  0.0998944383824  -1.82116514279
SI  0.0381256011018  1.09023764121  0.457688215334
H  -1.31093797395  0.681146830853  -1.26332171652
H  1.46555444128  -0.214508400847  -1.41817403916
H  0.209800679991  -1.27807627078  1.23844286294
H  -0.47410525676  -0.270193707755  2.40838108373
N  -0.0381344020701  -0.322871265649  1.49009395894
