8
0 1
H	1.6128280344	-1.52832810557	-0.000146097416154
BE	0.425987609458	-0.799020460146	-0.0012638387092
C	0.131913361874	0.803236424879	-0.000967864751522
H	0.153865388371	1.89491452617	-0.00188952381461
B	-1.15717671163	0.100456893193	0.000680229385307
LI	2.1755484682	0.376957825446	0.00120843284748
H	-1.01446975473	-1.20023300753	0.00130358671018
H	-2.32849639594	0.352015903561	0.00107507574854
