8
0 1
H  0.209396116882  -0.525862046277  -2.49942791627
CL  -0.00687398116902  -1.57667220311  0.669244595366
H  -0.20240221112  -1.10324802984  -2.75186262933
H  -1.52840920126  1.31136370069  0.179640498851
H  1.18007663936  1.27519798085  -0.423747707681
H  0.0179774974573  -1.62545549756  1.96923307759
AL  -0.00655066965103  1.11838762479  0.642439123166
H  0.336785809508  1.12628847046  2.21448095831
