8
0 1
H	1.67786514335	-0.216382307302	0.735202896554
H	-1.88663497379	0.215969685836	1.02811573498
P	0.39345291885	0.0825398023221	0.227733476851
C	-0.868650768451	-0.0202403002951	1.32249404958
H	1.43084430654	0.189977785584	-1.96140470533
F	-0.615531528931	0.0413282236041	-2.24928146111
C	0.494820429409	-0.0774801903014	-1.46629657583
H	-0.62616552697	-0.215712699447	2.36343658431
