8
0 1
H	-0.338075490088	-0.61618340495	-1.71734294252
H	-0.516075513325	-1.41691171931	3.53590173169
H	0.854512953587	0.864801427334	1.11472631168
F	-0.0661828685431	-0.784641753201	3.01794127516
O	-0.0533446172507	-1.08501066966	-2.52700224014
H	-0.257741662008	-0.458465758682	-3.24036439
P	-0.149932131804	1.15061430345	0.12732543253
H	0.526839329432	2.34579757501	-0.311185178414
