8
0 1
H  0.305237932005  1.83345699187  1.06449420993
B  0.102013671484  1.35043920878  -0.0296726334241
F  -1.27762908339  0.670878813221  -0.0319764141646
H  0.182892798667  2.09866933528  -0.97953660595
H  -0.315656447453  -2.85697166941  0.209024457891
LI  -0.341602912689  -0.792999074386  -0.198777662936
H  0.421121922421  -2.68599339264  0.175134920192
H  0.923622118951  0.382519787295  -0.208690271542
