8
0 1
H	-0.858515369153	1.40794644819	0.366476558977
H	0.00309363250725	-1.20306815872	1.23214089082
N	-0.000644127716302	1.67741803374	-0.108424404452
H	0.830672831449	1.41652536297	0.415923332587
C	0.000180219323615	-0.668159362151	-0.899266927336
C	-0.000681443830149	-1.43552708864	0.166118421635
H	0.0277622812341	1.30898913139	-1.06418682254
H	-0.0018680238146	-2.50412436678	-0.108781049689
