8
0 1
H	-1.28638907577	1.35047646012	-0.710229519198
C	-0.421800487676	0.707165357225	-0.524984200087
O	-0.679677213741	-0.744767165056	-0.964316361377
B	0.269659082825	-0.0740855303021	-1.63310713414
H	0.327254104454	-0.58605231754	2.80693215851
H	-0.0205115312957	0.762345756544	0.491089263904
H	0.792247539696	-1.11801771226	3.06411189435
H	1.01921758151	-0.297064848725	-2.52949610197
