8
0 1
H	2.46298588549	0.689229773439	0.0328445246159
H	-0.670421747834	0.303712319012	-1.05969062003
H	-0.640145436066	0.553603257306	0.92367746298
LI	0.680244854557	-0.376380876108	0.0119115281349
H	2.75967739519	-0.00153746257859	-0.052421853287
H	-2.41602900195	0.149527924194	-0.00696414160299
H	-0.945165500032	-1.26352938502	0.149610784969
B	-1.23114644936	-0.054625550245	0.00103231421656
