8
0 1
C	0.000567789266515	-0.424258136211	1.39332337663
H	-0.940346964298	-0.958382245585	1.12068852481
O	0.000337990826332	0.629315401175	1.9988273086
H	-0.805835583208	0.881323393158	-1.17031216257
H	0.941578608101	-0.959229403173	1.12288027165
H	-0.032768093065	-0.265036700143	-2.06747032382
H	0.835823911344	0.84236304262	-1.21011234062
N	0.00064234103346	0.253904648158	-1.18782465468
