8
0 1
N  0.000587066339673  -0.19842351933  1.8642313481
BE  -0.00486820424743  0.64874409816  0.606030206329
H  -0.0397454501945  -1.21341865089  1.88621785415
H  -0.0448531104825  0.752153686112  -0.819617607546
H  0.0411679795367  0.163653841517  2.81263238779
H  0.0222381203062  1.93058850953  -0.026283932167
H  0.0387101324012  -1.24504632527  -3.47726196321
H  -0.0132365336593  -0.838251639833  -2.84594829345
