8
0 1
H	-0.0726683258325	1.38198382997	2.0391138528
H	0.25962658825	1.73616257627	1.46488109424
H	0.131211118285	-1.94046174424	1.36126806593
H	-0.95008915807	-0.76345337129	-0.532846284568
H	0.0397803900447	-3.00973747378	-0.874012739055
H	0.243150612782	2.51508232641	-1.77330295342
SI	0.137806091693	-1.7135226826	-0.122658945116
H	0.211182682848	1.79394653927	-1.56244209082
