8
0 1
H	1.58720293364	0.767319080568	-0.0814657648013
AL	0.109726393772	-0.00217964460828	-3.33907899658
C	0.831262632251	-0.00386143825704	-0.306993251745
H	-0.064182373979	0.203962503571	0.303754827673
O	0.51210389204	-0.00351373561651	-1.67396786731
H	-2.37087120842	-0.137794286526	2.77035232621
H	1.23610099319	-0.982883594747	0.000875197120342
H	-1.84134326249	0.158951115616	2.32652352943
