8
0 1
O	0.757420384822	-0.00509928978548	0.755144211648
H	-1.01794410171	1.02757330549	1.02184400521
H	-0.960932444695	-0.607350508957	1.74144108421
C	-0.641909529588	0.000491691488462	0.878021034892
H	0.380378457793	0.0057187755109	-2.17341556597
H	0.126237384535	-0.00672361811421	-2.88155607748
AL	2.4707908477	-0.00042624219482	0.687087521244
H	-1.11404099885	-0.414184113437	-0.0285662137445
