8
0 1
H  -1.79486710745  0.0605302909209  -0.72232630229
LI  -0.8442956995  -0.676320430111  0.695815884273
H  0.600375123118  1.60888735254  0.110760595577
N  0.125575828371  0.743434420384  0.379276523587
H  -2.35962639887  -0.475174108248  -0.729464085076
H  1.82564313304  -0.396436507487  0.837062668953
H  1.41812929771  -0.465814566329  -0.760322199579
N  1.02906582359  -0.399106451673  0.189196914555
