8
0 1
H  0.499494599645  -2.6180149544  -0.0107013094049
BE  -0.479840107126  -1.43417514686  -0.0224187299244
H  1.05255907711  -1.97249173985  0.0216332241907
AL  -0.144032109172  2.66464282872  -0.0111283389037
B  -0.214721758166  0.40071110409  0.00660711563023
H  0.412681710662  0.836590422079  -0.983550913143
H  0.398183727744  0.836401993435  1.00360217893
F  -1.5243251407  1.28633549278  -0.00404322737943
