8
0 1
H	-1.20135335807	-0.349771803275	1.95137581028
H	-1.60699845688	0.512925294792	-0.73087374508
C	-0.51899336916	-0.110027078254	1.14441336862
C	-0.783915074419	-0.0717735724767	-0.297012808291
H	2.28040949743	0.771563130692	0.843299691499
F	0.448125669814	-0.0187032003466	-2.34836856324
SI	1.13283136275	-0.153595612097	0.544521547131
C	0.249893728531	-0.580617159034	-1.10735530092
