17
0, 1
C -5.650740  1.129488 -0.048426
C -4.140196  1.036621  0.018568
H -6.040176  0.628813 -0.939199
H -6.118332  0.603684  0.788655
C -3.648172 -0.395700  0.020929
H -3.711582  1.585207 -0.821992
H -3.789859  1.561210  0.909219
H -2.561857 -0.446777  0.068792
H -4.039005 -0.951324  0.874433
H -3.960611 -0.927296 -0.878923
C -6.161979  2.540342 -0.051048
O -5.487943  3.535798 -0.005642
O -7.510150  2.559874 -0.112332
C -8.089029  3.863014 -0.119431
H -9.163204  3.715922 -0.169200
H -7.824578  4.410031  0.784498
H -7.746327  4.435117 -0.980556
