8
0 1
N  0.0  0.0  -0.802757001303
B  0.0  0.0  0.834929807001
H  0.473317612256  0.819810152545  -1.16551936682
H  0.473317612256  -0.819810152545  -1.16551936682
H  -0.946635224513  0.0  -1.16551936682
H  1.16843056342  0.0  1.15479509825
H  -0.584215281711  1.01189055048  1.15479509825
H  -0.584215281711  -1.01189055048  1.15479509825
