12
0 1
N  0.0  0.0  -1.15437742233
B  0.0  -1.10500740002  0.0
N  0.0  0.0  1.15437742233
B  0.0  1.10500740002  0.0
H  -0.816622343347  0.0  -1.74591917114
H  0.816622343347  0.0  -1.74591917114
H  -1.01656611715  -1.75295575839  0.0
H  1.01656611715  -1.75295575839  0.0
H  0.816622343347  0.0  1.74591917114
H  -0.816622343347  0.0  1.74591917114
H  -1.01656611715  1.75295575839  0.0
H  1.01656611715  1.75295575839  0.0
