8
0 1
B  0.0  0.0  -1.12038195197
P  0.0  0.0  0.838308552403
H  -0.623595648072  -1.08009934584  1.50139041687
H  -0.623595648072  1.08009934584  1.50139041687
H  1.24719129614  0.0  1.50139041687
H  0.58654852154  1.01593184041  -1.40736595035
H  -1.17309704308  0.0  -1.40736595035
H  0.58654852154  -1.01593184041  -1.40736595035
