18
0 1
C  -4.29773147584  -0.204670640058  0.0
C  -3.10480510369  0.404086427707  0.0
C  -1.83334453399  -0.281886994675  0.0
C  -0.634096406052  0.338972127639  0.0
C  0.634096406052  -0.338972127639  0.0
C  1.83334453399  0.281886994675  0.0
C  3.10480510369  -0.404086427707  0.0
C  4.29773147584  0.204670640058  0.0
H  -4.38303238837  -1.28599537481  0.0
H  -5.22175582521  0.358957956588  0.0
H  -3.06734187358  1.49112076518  0.0
H  -1.86326611701  -1.36955593227  0.0
H  -0.608827929785  1.42691675788  0.0
H  0.608827929785  -1.42691675788  0.0
H  1.86326611701  1.36955593227  0.0
H  3.06734187358  -1.49112076518  0.0
H  4.38303238837  1.28599537481  0.0
H  5.22175582521  -0.358957956588  0.0
