15
0, 1		
C  -4.743520  2.259537	0.437271
C  -3.660756  2.071534 -0.301942
H  -5.339084  3.159608	0.364659
H  -5.081759  1.513389	1.147540
H  -3.359835  2.852084 -0.997990
C  -2.779585  0.872125 -0.260052
C  -1.332277  1.200881	0.092731
H  -2.792960  0.377148 -1.238045
H  -3.178513  0.143641	0.451106
C  -0.433859 -0.018409	0.086861
H  -0.952972  1.946865 -0.611256
H  -1.305026  1.683218	1.072972
H   0.594074  0.234067	0.342604
H  -0.775325 -0.765739  0.804112
H  -0.420143 -0.496111 -0.893621
