13
0, 2
C  0.674387 -0.448321 -0.000125
C  1.789643  0.516630 -0.000663
H  0.710236 -1.112170 -0.867614
H  0.710472 -1.111453  0.867910
H  2.128108  0.966574 -0.922650
H  2.128028  0.967675  0.920814
C -0.697488  0.197738 -0.000176
O -0.925163  1.376763 -0.000472
O -1.656165 -0.750354  0.000189
C -2.991927 -0.248458  0.000230
H -3.640881 -1.118349  0.000987
H -3.176098  0.361262  0.883585
H -3.176597  0.360059 -0.883854
