12
0 2
C  -1.49839768072  0.226528074907  0.0
N  -0.192288552084  -0.2261591907  0.0
C  0.572112881571  -0.0636208959978  1.22355320182
C  0.572112881571  -0.0636208959978  -1.22355320182
H  -2.04244728728  0.14920716803  -0.931348278627
H  -2.04244728728  0.14920716803  0.931348278627
H  -0.0420362421865  -0.350118039056  -2.07804571545
H  0.906440542645  0.974859634763  -1.37134595039
H  1.45127322165  -0.710512309842  -1.19906906915
H  -0.0420362421865  -0.350118039056  2.07804571545
H  0.906440542645  0.974859634763  1.37134595039
H  1.45127322165  -0.710512309842  1.19906906915
