8
0 1
C  -1.02966896476  0.124578364437  0.0
O  0.261894743283  0.75625682762  0.0
C  1.33421833818  -0.0584422648127  0.0
O  2.45666877606  0.349785516572  0.0
H  -1.75565526488  0.93293550701  0.0
H  -1.16920486641  -0.486276534947  -0.894505439494
H  -1.16920486641  -0.486276534947  0.894505439494
H  1.07095210493  -1.13256088093  0.0
