11
0 1
C	0.0	-1.28520656958	-0.264840054582
C	0.0	0.0	0.530884895892
F	1.10274167181	0.0	1.37023795858
F	-1.10274167181	0.0	1.37023795858
C	0.0	1.28520656958	-0.264840054582
H	0.0	-2.13344212537	0.41963105151
H	-0.888088398629	-1.33557039923	-0.895235701726
H	0.888088398629	-1.33557039923	-0.895235701726
H	0.888088398629	1.33557039923	-0.895235701726
H	-0.888088398629	1.33557039923	-0.895235701726
H	0.0	2.13344212537	0.41963105151
