7
0 1
C	-0.567600930227	0.0922570763985	0.0
N	0.894011074018	0.175013177342	0.0
H	1.28469252774	-0.281727330997	0.815636945224
H	1.28469252774	-0.281727330997	-0.815636945224
H	-0.95722232436	0.611578913156	0.877952757135
H	-0.981350550556	-0.926973418058	0.0
H	-0.95722232436	0.611578913156	-0.877952757135
