10
0 1
N	0.27661182747	0.272457406378	1.55708323232
C	-0.520424501842	-0.0691122298786	0.390752146105
C	0.303877406209	0.0688260644699	-0.868328040475
O	1.50707046856	0.0432554320919	-0.916315569666
O	-0.476499045575	0.179958582947	-1.96848959922
H	1.2203674278	-0.0839245556783	1.45617153566
H	-0.128225430891	-0.10525741326	2.40378322111
H	0.112823497258	0.20987574783	-2.73894432972
H	-0.905313250774	-1.10287501728	0.374155721282
H	-1.39028839821	0.586795982379	0.310131682588
