11
0 2
C	-1.59110755576	0.148910610255	0.0
C	-0.266500862871	-0.49203558876	0.0
C	0.891731846243	0.115316280679	0.754672337768
C	0.891731846243	0.115316280679	-0.754672337768
H	-2.11863352396	0.334860035613	0.928316721811
H	-2.11863352396	0.334860035613	-0.928316721811
H	-0.280871427161	-1.58319792799	0.0
H	1.57611436309	-0.548114931451	1.26856495581
H	0.720027237526	1.06110006841	1.25376603781
H	1.57611436309	-0.548114931451	-1.26856495581
H	0.720027237526	1.06110006841	-1.25376603781
