10
0 1
C  0.228601066575  -0.0194464266267  -1.3747096871
S  -0.798463254234  -0.693319833575  0.0
C  0.228601066575  -0.0194464266267  1.3747096871
H  -0.292851980545  -0.267441618008  -2.2975228736
H  1.21588952132  -0.482944296006  -1.36627372724
H  0.295639392129  1.06273903206  -1.26489010765
H  0.295639392129  1.06273903206  1.26489010765
H  -0.292851980545  -0.267441618008  2.2975228736
H  1.21588952132  -0.482944296006  1.36627372724
O  -2.09609274472  0.107506450743  0.0
