9
0 1
C  0.0  -1.17550804457  0.0452183881714
O  0.0  0.0  0.828922431576
C  0.0  1.17550804457  0.0452183881714
H  0.0  -2.02278145565  0.730196961439
H  -0.891497199704  -1.23518723674  -0.594938282699
H  0.891497199704  -1.23518723674  -0.594938282699
H  0.0  2.02278145565  0.730196961439
H  -0.891497199704  1.23518723674  -0.594938282699
H  0.891497199704  1.23518723674  -0.594938282699
