14
0 2
C	0.0	0.0	0.920032858825
C	1.2151064764	0.0	0.177885808614
C	1.20838493792	0.0	-1.20344049146
C	0.0	0.0	-1.90734503116
C	-1.20838493792	0.0	-1.20344049146
C	-1.2151064764	0.0	0.177885808614
C	0.0	0.0	2.32263869724
H	2.15586158129	0.0	0.716719140237
H	2.14697022897	0.0	-1.74543124706
H	0.0	0.0	-2.99035959369
H	-2.14697022897	0.0	-1.74543124706
H	-2.15586158129	0.0	0.716719140237
H	0.926381325666	0.0	2.88178332406
H	-0.926381325666	0.0	2.88178332406
