7
1 2
C  -0.865304085926  0.0381231645119  0.0
N  0.604373981417  0.0200831346327  0.0
H  -1.34955648618  -0.0520797360012  -0.95893303791
H  0.986432865083  0.492099204297  0.828097713744
H  -1.34955648618  -0.0520797360012  0.95893303791
H  0.987177346707  -0.938245235735  0.0
H  0.986432865083  0.492099204297  -0.828097713744
