12
0 1
O  1.3907838857  -2.27008061027  0.0
N  1.32421632877  0.0128646798812  0.0
C  -1.39731387817  0.021212832286  0.0
C  -0.69483968834  1.2486526892  0.0
C  0.670491741628  1.19894095131  0.0
C  0.711051242436  -1.23272547425  0.0
C  -0.72716942589  -1.17259350751  0.0
H  -2.47938925967  0.0231542905326  0.0
H  -1.20363426768  2.19866610131  0.0
H  1.29551137445  2.08032204132  0.0
H  -1.25169673303  -2.1162780914  0.0
H  2.36198867979  0.00786409759775  0.0
