10
0 1
C	-1.88889666017	-0.179692064365	0.0
C	1.88889666017	0.179692064365	0.0
O	-1.17043542691	-1.16659040141	0.0
O	-1.49328055309	1.07368943269	0.0
O	1.49328055309	-1.07368943269	0.0
O	1.17043542691	1.16659040141	0.0
H	-0.498833170969	1.10719538056	0.0
H	-2.97948901471	-0.258829097769	0.0
H	2.97948901471	0.258829097769	0.0
H	0.498833170969	-1.10719538056	0.0
