12
0 1
C	-1.20818651266	-0.697546808315	0.0
C	-1.20818651266	0.697546808315	0.0
C	0.0	1.39509361663	0.0
C	1.20818651266	0.697546808315	0.0
C	1.20818651266	-0.697546808315	0.0
C	0.0	-1.39509361663	0.0
H	-2.14402742644	-1.2378548118	0.0
H	-2.14402742644	1.2378548118	0.0
H	0.0	2.47570962361	0.0
H	2.14402742644	1.2378548118	0.0
H	2.14402742644	-1.2378548118	0.0
H	0.0	-2.47570962361	0.0
