10
0 1
C	0.0	0.0	-1.85916168016
C	0.0	0.0	1.85916168016
H	0.888621394245	-0.513045801175	-1.49459324916
H	0.0	1.02609160235	-1.49459324916
H	0.0	0.0	-2.94828494013
H	-0.888621394245	-0.513045801175	-1.49459324916
H	0.0	0.0	2.94828494013
H	-0.888621394245	0.513045801175	1.49459324916
H	0.888621394245	0.513045801175	1.49459324916
H	0.0	-1.02609160235	1.49459324916
