12
0 1
C  1.20625469228  -0.696431471301  0.0
C  1.20625469228  0.696431471301  0.0
C  0.0  1.3928629426  0.0
C  -1.20625469228  0.696431471301  0.0
C  -1.20625469228  -0.696431471301  0.0
C  0.0  -1.3928629426  0.0
H  2.14344185165  1.23751673005  0.0
H  0.0  2.47503346009  0.0
H  -2.14344185165  1.23751673005  0.0
H  -2.14344185165  -1.23751673005  0.0
H  0.0  -2.47503346009  0.0
H  2.14344185165  -1.23751673005  0.0
