12
0 1
C  -1.20774234392  -0.697290367375  0.0
C  -1.20774234392  0.697290367375  0.0
C  0.0  1.39458073475  0.0
C  1.20774234392  0.697290367375  0.0
C  1.20774234392  -0.697290367375  0.0
C  0.0  -1.39458073475  0.0
H  -2.14407090105  1.23787991188  0.0
H  0.0  2.47575982376  0.0
H  2.14407090105  1.23787991188  0.0
H  2.14407090105  -1.23787991188  0.0
H  0.0  -2.47575982376  0.0
H  -2.14407090105  -1.23787991188  0.0
