5
0 1
 C         0.000000000000      0.000000000000      0.000000000000
 H         0.000000000000      0.000000000000      1.089933402500
 H         1.027599066599      0.000000000000     -0.363311134167
 F        -0.636775731492     -1.102927919972     -0.450268437833
 F        -0.636775731492      1.102927919972     -0.450268437833
