6
0 2
 C        -0.024257870000      0.728127100000      0.000000000000
 H        -0.293568020000      1.208052810000      0.928854340000
 H        -0.293568020000      1.208052810000     -0.928854340000
 N        -0.019427110000     -0.668556390000      0.000000000000
 H         0.375793500000     -1.083588170000     -0.828685940000
 H         0.375793500000     -1.083588170000      0.828685940000
