8
0 1
 C         0.000000000000      0.000000000000      0.000000000000
 C         0.000000000000      0.000000000000      1.526516490000
 H         1.016928224410      0.000000000000     -0.394584621123
 H        -0.508464112205     -0.880685676164     -0.394584621123
 H        -0.508464112205      0.880685676164     -0.394584621123
 H        -1.016928224410      0.000000000000      1.921101111123
 H         0.508464112205     -0.880685676164      1.921101111123
 H         0.508464112205      0.880685676164      1.921101111123
