7
0 1
 C         0.000000000000      0.000000000000      0.000000000000
 C         0.000000000000      0.000000000000      1.310515161000
 C         0.000000000000      0.000000000000     -1.310515161000
 H        -0.929020412000      0.000000000000     -1.866059578900
 H         0.929020412000      0.000000000000     -1.866059578900
 H         0.000000000000      0.929020412000      1.866059578900
 H         0.000000000000     -0.929020412000      1.866059578900
