7
0 1
 C         0.000000000000      0.000000000000      0.000000000000
 N         0.000000000000      0.000000000000      1.465210390000
 H         0.993527514314      0.000000000000     -0.462014720405
 H        -0.538877718230     -0.877639910220     -0.356373001773
 H        -0.538877718230      0.877639910220     -0.356373001773
 H         0.505004338661      0.807606568865      1.806879695426
 H         0.505004338661     -0.807606568865      1.806879695426
