7
0 1
 O         0.000000000000      0.000000000000      0.000000000000
 C         0.000000000000      0.000000000000      1.429337652200
 C         1.257770961935      0.000000000000      0.678983307091
 H        -0.344938978406     -0.919428220685      1.887169245829
 H        -0.344938978406      0.919428220685      1.887169245829
 H         1.824505554688     -0.919428220685      0.592933505663
 H         1.824505554688      0.919428220685      0.592933505663
