5
0 2
 C         0.000000000000      0.000000000000      0.000000000000
 H         0.000000000000      0.000000000000      1.078590070000
 C         0.895477767192      0.000000000000     -0.961157842026
 H         0.614976235706      0.000000000000     -2.008556839432
 H         1.962642419481      0.000000000000     -0.739903295375
