6
0 1
 N         0.000000000000      0.000000000000      0.000000000000
 N         0.000000000000      0.000000000000      1.438342620000
 H         0.945148468559      0.000000000000     -0.366211407202
 H        -0.431211314177     -0.866493527524     -0.290416721855
 H         0.846548598535     -0.420310715945      1.804554027202
 H        -0.000893847688      0.967860233583      1.728759341855
