5
0 1
 C         0.000000000000      0.000000000000      0.000000000000
 N         0.000000000000      0.000000000000      1.274160000000
 H         0.958887695699      0.000000000000      1.621916217826
 H         0.900401110292      0.000000000000     -0.616933084689
 H        -0.953958531454      0.000000000000     -0.521671274527
