9
0 1
 C        -1.135637750000     -0.503238950000      0.000000000000
 C        -0.005083350000      0.481805170000      0.000000000000
 C         1.287798110000      0.147715000000      0.000000000000
 H         1.598369560000     -0.890826970000      0.000000000000
 H         2.065243140000      0.900115840000      0.000000000000
 H        -0.274973510000      1.533807170000      0.000000000000
 H        -0.761408820000     -1.527424780000      0.000000000000
 H        -1.771067190000     -0.368728740000      0.878202840000
 H        -1.771067190000     -0.368728740000     -0.878202840000
