5
0 1
 F         0.000000000000      0.000000000000      0.000000000000
 C         0.000000000000      0.000000000000      1.317921860000
 F         1.242548645707      0.000000000000      1.757229146667
 F        -0.621274322853      1.076078692620      1.757229146667
 F        -0.621274322853     -1.076078692620      1.757229146667
