9
0 1
 H         0.000000000000      0.000000000000      0.000000000000
 O         0.000000000000      0.000000000000      0.958296758600
 C         1.352447343083      0.000000000000      1.404529049191
 C         1.333659361809      0.000000000000      2.917506256466
 H         1.879912487070      0.885595104653      1.034023858253
 H         1.879912487070     -0.885595104653      1.034023858253
 H         2.350714923059      0.000000000000      3.311779454642
 H         0.814910840800     -0.884130410203      3.287982378116
 H         0.814910840800      0.884130410203      3.287982378116
