5
0 1
 F         0.000000000000      0.000000000000      0.000000000000
 Si        0.000000000000      0.000000000000      1.560430000000
 F         1.471187512756      0.000000000000      2.080573333333
 F        -0.735593756378      1.274085759777      2.080573333333
 F        -0.735593756378     -1.274085759777      2.080573333333
