14
-1 1
O  0.794126907446  -0.158049501951  2.06603946245
O  -0.0265990025726  -1.46862558046  0.0
H  0.853543729125  1.31756814974  0.76326952645
H  -0.0492091726494  0.0556878844845  2.47385636803
O  0.706019653451  1.9061094238  0.0
H  0.853543729125  1.31756814974  -0.76326952645
O  0.794126907446  -0.158049501951  -2.06603946245
H  -0.0492091726494  0.0556878844845  -2.47385636803
H  0.525302934075  -0.76678112566  -1.28987424987
O  -2.03773029565  0.390588797273  0.0
H  -1.39115337784  1.10999294994  0.0
H  -1.45458484121  -0.407955345836  0.0
H  0.525302934075  -0.76678112566  1.28987424987
H  -0.0434809321712  -2.42696105794  0.0
