14
-1 1
H	-0.0267917608605	1.58182523711	0.283424937755
H	1.58182523711	0.0267917608605	0.283424937755
H	0.0267917608605	-1.58182523711	0.283424937755
H	-1.58182523711	-0.0267917608605	0.283424937755
O	0.0	0.0	0.95789994987
H	0.0	0.0	1.91770364412
O	0.0314199338083	2.41856661106	-0.252990508809
O	2.41856661106	-0.0314199338083	-0.252990508809
O	-0.0314199338083	-2.41856661106	-0.252990508809
O	-2.41856661106	0.0314199338083	-0.252990508809
H	0.843048033924	2.27852263871	-0.749335327444
H	2.27852263871	-0.843048033924	-0.749335327444
H	-0.843048033924	-2.27852263871	-0.749335327444
H	-2.27852263871	0.843048033924	-0.749335327444
