7
1 1
O	-1.19972819477	0.0290201030995	0.115747054033
H	-1.6314242393	-0.733319976182	0.528406494785
H	-1.69400186703	0.295623657151	-0.672422532307
O	1.19972819477	-0.0290201030995	0.115747054033
H	0.0	0.0	0.0565379669786
H	1.69400186703	-0.295623657151	-0.672422532307
H	1.6314242393	0.733319976182	0.528406494785
