11
-1 1
H	1.83052047289	-1.89684637763	-0.693962841041
O	2.20228806116	-1.15195454209	-0.216614192785
H	1.38056332453	-0.684856430753	0.150309812796
H	0.0	0.0	1.62059300046
H	-0.0971785952869	1.53803112595	0.150309812796
H	0.727456913657	2.53370042049	-0.693962841041
O	-0.10352213313	2.48321467846	-0.216614192785
O	0.0	0.0	0.660208662628
H	-1.28338472924	-0.853174695199	0.150309812796
O	-2.09876592803	-1.33126013637	-0.216614192785
H	-2.55797738655	-0.636854042859	-0.693962841041
