12
0 1
O  -1.45649252876  1.28720941923  -0.00736889822323
H  -0.492967030405  1.47969285573  -0.00986060434299
H  -1.81942002897  1.74937324469  0.752143645609
O  -1.28720941923  -1.45649252876  0.00736889822323
H  -1.47969285573  -0.492967030405  0.00986060434299
H  -1.74937324469  -1.81942002897  -0.752143645609
O  1.45649252876  -1.28720941923  -0.00736889822323
H  0.492967030405  -1.47969285573  -0.00986060434299
H  1.81942002897  -1.74937324469  0.752143645609
O  1.28720941923  1.45649252876  0.00736889822323
H  1.47969285573  0.492967030405  0.00986060434299
H  1.74937324469  1.81942002897  -0.752143645609
